[Format]      =  4.0
[Frequency]   =  0
[Precision]   =  1e-008
[MinAngle]    =  30
[DoSmartMesh] =  1
[Depth]       =  66
[LengthUnits] =  millimeters
[ProblemType] =  planar
[Coordinates] =  polar
[ACSolver]    =  0
[PrevType]    =  0
[PrevSoln]    =  ""
[Comment]     =  "Add comments here."
[PointProps]   = 0
[BdryProps]   = 1
  <BeginBdry>
    <BdryName> = "BC1"
    <BdryType> = 0
    <A_0> = 0
    <A_1> = 0
    <A_2> = 0
    <Phi> = 0
    <c0> = 0
    <c0i> = 0
    <c1> = 0
    <c1i> = 0
    <Mu_ssd> = 0
    <Sigma_ssd> = 0
    <innerangle> = 0
    <outerangle> = 0
  <EndBdry>
[BlockProps]  = 5
  <BeginBlock>
    <BlockName> = "Air"
    <Mu_x> = 1
    <Mu_y> = 1
    <H_c> = 0
    <H_cAngle> = 0
    <J_re> = 0
    <J_im> = 0
    <Sigma> = 0
    <d_lam> = 0
    <Phi_h> = 0
    <Phi_hx> = 0
    <Phi_hy> = 0
    <LamType> = 0
    <LamFill> = 1
    <NStrands> = 0
    <WireD> = 0
    <BHPoints> = 0
  <EndBlock>
  <BeginBlock>
    <BlockName> = "Pure Iron"
    <Mu_x> = 14872
    <Mu_y> = 14872
    <H_c> = 0
    <H_cAngle> = 0
    <J_re> = 0
    <J_im> = 0
    <Sigma> = 10.44
    <d_lam> = 0
    <Phi_h> = 0
    <Phi_hx> = 0
    <Phi_hy> = 0
    <LamType> = 0
    <LamFill> = 1
    <NStrands> = 0
    <WireD> = 0
    <BHPoints> = 0
  <EndBlock>
  <BeginBlock>
    <BlockName> = "N50"
    <Mu_x> = 1.05
    <Mu_y> = 1.05
    <H_c> = 987837
    <H_cAngle> = 0
    <J_re> = 0
    <J_im> = 0
    <Sigma> = 0.66700000000000004
    <d_lam> = 0
    <Phi_h> = 0
    <Phi_hx> = 0
    <Phi_hy> = 0
    <LamType> = 0
    <LamFill> = 1
    <NStrands> = 0
    <WireD> = 0
    <BHPoints> = 8
      0	0
      0.0717	11297
      0.14349999999999999	30636
      0.2152	67096
      0.28689999999999999	118309
      0.35859999999999997	172428
      0.4304	226773
      1.4346000000000001	987837
  <EndBlock>
  <BeginBlock>
    <BlockName> = "18 AWG"
    <Mu_x> = 1
    <Mu_y> = 1
    <H_c> = 0
    <H_cAngle> = 0
    <J_re> = 0
    <J_im> = 0
    <Sigma> = 58
    <d_lam> = 0
    <Phi_h> = 0
    <Phi_hx> = 0
    <Phi_hy> = 0
    <LamType> = 3
    <LamFill> = 1
    <NStrands> = 1
    <WireD> = 1.0239652968433499
    <BHPoints> = 0
  <EndBlock>
  <BeginBlock>
    <BlockName> = "N30"
    <Mu_x> = 1.05
    <Mu_y> = 1.05
    <H_c> = 836420
    <H_cAngle> = 0
    <J_re> = 0
    <J_im> = 0
    <Sigma> = 0.66700000000000004
    <d_lam> = 0
    <Phi_h> = 0
    <Phi_hx> = 0
    <Phi_hy> = 0
    <LamType> = 0
    <LamFill> = 1
    <NStrands> = 0
    <WireD> = 0
    <BHPoints> = 0
  <EndBlock>
[CircuitProps]  = 4
  <BeginCircuit>
    <CircuitName> = "phase_1"
    <TotalAmps_re> = 0
    <TotalAmps_im> = 0
    <CircuitType> = 1
  <EndCircuit>
  <BeginCircuit>
    <CircuitName> = "phase_2"
    <TotalAmps_re> = 0
    <TotalAmps_im> = 0
    <CircuitType> = 1
  <EndCircuit>
  <BeginCircuit>
    <CircuitName> = "phase_3"
    <TotalAmps_re> = 0
    <TotalAmps_im> = 0
    <CircuitType> = 1
  <EndCircuit>
  <BeginCircuit>
    <CircuitName> = "New Circuit"
    <TotalAmps_re> = 0
    <TotalAmps_im> = 0
    <CircuitType> = 1
  <EndCircuit>
[NumPoints] = 462
16.492555202593635	41.868790559190778	0	0
-16.492555202593635	-41.868790559190778	0	0
93.261294210256111	16.444482425058297	0	0
-93.261294210256111	-16.444482425058286	0	0
72.875660802582374	16.408170607901816	0	0
74.092645554110177	9.5063071118104769	0	0
72.103967668678294	15.257518578892608	0	0
72.973945038789623	10.323631736301451	0	0
68.359106086111979	27.546445176442504	0	0
68.919266839360773	28.813619322050521	0	0
71.316258876565129	22.227937825219069	0	0
70.072627004173526	22.838585146305093	0	0
62.537187656495817	38.998386976480006	0	0
62.868795828056953	40.343580793493615	0	0
66.372963760823936	34.274183895687649	0	0
65.042187656495869	34.65959970351998	0	0
54.815108425280926	49.265382522373173	0	0
54.908088268663306	50.64772297736333	0	0
59.412959727550309	45.279026232059621	0	0
58.03547434981045	45.427499862347126	0	0
45.42749986234714	58.035474349810507	0	0
45.279026232059628	59.412959727550295	0	0
50.647722977363323	54.908088268663313	0	0
49.265382522373187	54.81510842528094	0	0
34.659599703519987	65.042187656495784	0	0
34.274183895687642	66.372963760823936	0	0
40.343580793493629	62.868795828056939	0	0
38.998386976480035	62.537187656495817	0	0
22.838585146305107	70.072627004173555	0	0
22.227937825219094	71.316258876565144	0	0
28.813619322050531	68.919266839360787	0	0
27.546445176442504	68.359106086111908	0	0
10.323631736301452	72.973945038789594	0	0
9.5063071118104965	74.092645554110121	0	0
16.408170607901823	72.875660802582374	0	0
15.25751857889262	72.10396766867828	0	0
-2.5049999999999879	73.657986679999993	0	0
-3.5041679327669555	74.617764689181229	0	0
3.5041679327669835	74.617764689181229	0	0
2.5050000000000061	73.657986679999993	0	0
-15.257518578892604	72.10396766867828	0	0
-16.408170607901813	72.875660802582374	0	0
-9.5063071118104734	74.092645554110177	0	0
-10.323631736301447	72.973945038789623	0	0
-27.546445176442496	68.359106086111979	0	0
-28.813619322050521	68.919266839360773	0	0
-22.227937825219065	71.316258876565129	0	0
-22.838585146305093	70.072627004173526	0	0
-38.998386976480006	62.537187656495817	0	0
-40.343580793493615	62.868795828056953	0	0
-34.274183895687649	66.372963760823936	0	0
-34.65959970351998	65.042187656495869	0	0
-49.265382522373159	54.815108425280926	0	0
-50.64772297736333	54.908088268663306	0	0
-45.279026232059614	59.412959727550309	0	0
-45.427499862347119	58.035474349810464	0	0
-58.035474349810507	45.42749986234714	0	0
-59.412959727550302	45.279026232059628	0	0
-54.908088268663327	50.647722977363323	0	0
-54.81510842528094	49.265382522373201	0	0
-65.04218765649577	34.659599703520001	0	0
-66.372963760823907	34.274183895687656	0	0
-62.868795828056925	40.343580793493636	0	0
-62.537187656495803	38.998386976480042	0	0
-70.072627004173555	22.838585146305086	0	0
-71.316258876565129	22.22793782521908	0	0
-68.919266839360816	28.813619322050506	0	0
-68.359106086111922	27.546445176442489	0	0
-72.973945038789594	10.32363173630146	0	0
-74.092645554110121	9.5063071118105	0	0
-72.875660802582374	16.40817060790183	0	0
-72.10396766867828	15.25751857889262	0	0
-73.657986679999993	-2.5049999999999986	0	0
-74.617764689181229	-3.5041679327669644	0	0
-74.617764689181229	3.5041679327669764	0	0
-73.657986679999993	2.5049999999999955	0	0
-72.10396766867828	-15.257518578892597	0	0
-72.875660802582374	-16.408170607901809	0	0
-74.092645554110177	-9.5063071118104663	0	0
-72.973945038789623	-10.32363173630144	0	0
-68.359106086111964	-27.546445176442518	0	0
-68.919266839360773	-28.813619322050535	0	0
-71.316258876565129	-22.227937825219076	0	0
-70.072627004173526	-22.8385851463051	0	0
-62.537187656495817	-38.998386976480006	0	0
-62.868795828056953	-40.343580793493615	0	0
-66.37296376082395	-34.274183895687642	0	0
-65.042187656495869	-34.659599703519973	0	0
-54.815108425280926	-49.265382522373187	0	0
-54.908088268663306	-50.647722977363344	0	0
-59.412959727550309	-45.279026232059636	0	0
-58.035474349810428	-45.427499862347112	0	0
-45.42749986234714	-58.035474349810507	0	0
-45.279026232059628	-59.412959727550295	0	0
-50.647722977363323	-54.908088268663313	0	0
-49.265382522373187	-54.81510842528094	0	0
-34.659599703520001	-65.04218765649577	0	0
-34.274183895687656	-66.372963760823907	0	0
-40.343580793493636	-62.868795828056925	0	0
-38.998386976480042	-62.537187656495803	0	0
-22.838585146305142	-70.07262700417354	0	0
-22.227937825219122	-71.316258876565129	0	0
-28.813619322050549	-68.919266839360816	0	0
-27.546445176442532	-68.359106086111922	0	0
-10.323631736301493	-72.973945038789623	0	0
-9.5063071118105391	-74.092645554110163	0	0
-16.408170607901873	-72.87566080258236	0	0
-15.257518578892668	-72.103967668678308	0	0
2.5049999999999915	-73.657986679999993	0	0
3.5041679327669626	-74.617764689181229	0	0
-3.5041679327669764	-74.617764689181229	0	0
-2.504999999999999	-73.657986679999993	0	0
15.257518578892594	-72.10396766867828	0	0
16.408170607901802	-72.875660802582374	0	0
9.5063071118104627	-74.092645554110177	0	0
10.323631736301436	-72.973945038789623	0	0
27.546445176442482	-68.359106086111993	0	0
28.813619322050492	-68.919266839360773	0	0
22.227937825219037	-71.316258876565144	0	0
22.838585146305064	-70.07262700417354	0	0
38.998386976479971	-62.537187656495817	0	0
40.34358079349358	-62.868795828056967	0	0
34.274183895687592	-66.372963760823936	0	0
34.659599703519937	-65.042187656495855	0	0
49.265382522373187	-54.815108425280926	0	0
50.647722977363344	-54.908088268663306	0	0
45.279026232059636	-59.412959727550309	0	0
45.427499862347112	-58.035474349810428	0	0
58.035474349810492	-45.427499862347148	0	0
59.412959727550295	-45.279026232059636	0	0
54.908088268663313	-50.64772297736333	0	0
54.815108425280933	-49.265382522373201	0	0
65.042187656495756	-34.659599703520001	0	0
66.372963760823893	-34.274183895687678	0	0
62.868795828056918	-40.343580793493651	0	0
62.537187656495789	-38.998386976480035	0	0
70.07262700417354	-22.838585146305142	0	0
71.316258876565129	-22.227937825219122	0	0
68.919266839360816	-28.813619322050549	0	0
68.359106086111922	-27.546445176442532	0	0
72.973945038789608	-10.323631736301436	0	0
74.092645554110135	-9.5063071118104698	0	0
72.875660802582388	-16.408170607901802	0	0
72.103967668678294	-15.257518578892611	0	0
73.657986679999993	2.5049999999999226	0	0
74.617764689181271	3.5041679327668929	0	0
74.617764689181243	-3.5041679327670456	0	0
73.657986680000022	-2.5050000000000683	0	0
-5.1218947001145487	48.731572873045373	0	0
-4.7037808470441007	44.753485291572247	0	0
33.961931110024899	29.522656304572504	0	0
36.980769430915885	32.146892420534407	0	0
-44.763727424487108	19.930095510714583	0	0
-41.109545593916813	18.303148938411255	0	0
-8.5864047919441759	44.173223255144876	0	0
-9.3496407734502842	48.099731988935417	0	0
-39.64183272437257	-28.801477362330733	0	0
-36.405764746872727	-26.450336353160921	0	0
-42.548335901969047	14.65056695057234	0	0
-46.330410204366117	15.952839568400975	0	0
5.1218947001145487	-48.731572873045373	0	0
4.7037808470440527	-44.753485291572204	0	0
-33.961931110024899	-29.522656304572482	0	0
-36.980769430915885	-32.146892420534407	0	0
44.763727424487108	-19.930095510714583	0	0
41.109545593916764	-18.30314893841128	0	0
8.5864047919441404	-44.173223255144876	0	0
9.3496407734502718	-48.099731988935389	0	0
39.64183272437257	28.801477362330733	0	0
36.405764746872727	26.450336353160964	0	0
42.548335901969018	-14.65056695057234	0	0
46.330410204366181	-15.95283956840098	0	0
48.644539465951347	11.841177886118942	0	0
49.135736971794337	11.934585649466545	0	0
50.282610595073045	11.409824571142494	0	0
49.760836135438495	5.5103448791565723	0	0
50.254358143635528	5.5905697345643546	0	0
51.152587965184381	6.4759377285513313	0	0
45.849320646422719	20.10831941875616	0	0
46.316835670551896	20.285603660056601	0	0
47.537409511443471	19.96796739634064	0	0
48.047995875968063	14.067508872866146	0	0
48.520089275977469	14.232214129817939	0	0
49.250930429505075	15.26010736620324	0	0
41.660993419928232	27.764479841155083	0	0
42.09062075490948	28.020253868446574	0	0
43.34780829489857	27.91939363648002	0	0
44.875241575265349	22.19723872797665	0	0
45.311562048018672	22.441419900584854	0	0
45.852808294898594	23.580606363519987	0	0
36.2068179898491	34.577030593085183	0	0
36.585503626510906	34.903522841976418	0	0
37.841105858362596	35.022503228869795	0	0
40.338975767266128	29.652516716682335	0	0
40.72626593598757	29.968754483578905	0	0
41.061471782892148	31.184620568843719	0	0
29.652516716682314	40.338975767266128	0	0
29.96875448357892	40.726265935987577	0	0
31.184620568843759	41.061471782892141	0	0
34.577030593085205	36.206817989849092	0	0
34.903522841976432	36.585503626510892	0	0
35.022503228869816	37.841105858362596	0	0
22.197238727976647	44.875241575265342	0	0
22.441419900584854	45.311562048018679	0	0
23.580606363519983	45.852808294898587	0	0
27.764479841155079	41.660993419928232	0	0
28.020253868446581	42.090620754909473	0	0
27.919393636480017	43.347808294898591	0	0
14.067508872866169	48.04799587596802	0	0
14.232214129817951	48.520089275977433	0	0
15.26010736620325	49.250930429505075	0	0
20.108319418756174	45.849320646422704	0	0
20.285603660056601	46.31683567055191	0	0
19.967967396340644	47.537409511443471	0	0
5.5103448791565812	49.76083613543851	0	0
5.5905697345643581	50.254358143635507	0	0
6.4759377285513402	51.152587965184374	0	0
11.841177886118938	48.64453946595134	0	0
11.934585649466555	49.13573697179433	0	0
11.409824571142504	50.282610595073024	0	0
-3.2142481553371169	49.961718569131733	0	0
-3.2209412931091883	50.461673769031442	0	0
-2.5049999999999946	51.500000000000007	0	0
3.2142481553371214	49.961718569131733	0	0
3.2209412931091945	50.461673769031449	0	0
2.5050000000000052	51.499999999999993	0	0
-11.841177886118935	48.644539465951347	0	0
-11.934585649466541	49.135736971794337	0	0
-11.40982457114249	50.282610595073045	0	0
-5.5103448791565706	49.760836135438495	0	0
-5.590569734564351	50.254358143635528	0	0
-6.4759377285513278	51.152587965184381	0	0
-20.10831941875616	45.849320646422719	0	0
-20.285603660056601	46.316835670551896	0	0
-19.967967396340637	47.537409511443464	0	0
-14.067508872866146	48.047995875968063	0	0
-14.232214129817939	48.520089275977469	0	0
-15.26010736620324	49.250930429505082	0	0
-27.764479841155083	41.660993419928232	0	0
-28.020253868446574	42.09062075490948	0	0
-27.91939363648002	43.34780829489857	0	0
-22.19723872797665	44.875241575265349	0	0
-22.441419900584854	45.311562048018672	0	0
-23.580606363519987	45.852808294898594	0	0
-34.577030593085183	36.206817989849114	0	0
-34.903522841976411	36.585503626510913	0	0
-35.022503228869788	37.841105858362596	0	0
-29.652516716682328	40.338975767266128	0	0
-29.968754483578898	40.726265935987563	0	0
-31.184620568843712	41.061471782892148	0	0
-40.338975767266135	29.652516716682314	0	0
-40.726265935987584	29.968754483578905	0	0
-41.061471782892141	31.184620568843759	0	0
-36.2068179898491	34.577030593085198	0	0
-36.585503626510899	34.903522841976432	0	0
-37.841105858362596	35.022503228869816	0	0
-44.875241575265335	22.197238727976654	0	0
-45.311562048018672	22.441419900584862	0	0
-45.85280829489858	23.580606363519987	0	0
-41.660993419928232	27.764479841155094	0	0
-42.090620754909473	28.020253868446591	0	0
-43.347808294898584	27.919393636480027	0	0
-48.047995875968034	14.067508872866156	0	0
-48.520089275977448	14.232214129817935	0	0
-49.25093042950509	15.26010736620324	0	0
-45.849320646422697	20.108319418756157	0	0
-46.316835670551917	20.285603660056591	0	0
-47.537409511443478	19.967967396340644	0	0
-49.76083613543851	5.5103448791565848	0	0
-50.254358143635507	5.5905697345643617	0	0
-51.152587965184374	6.4759377285513438	0	0
-48.64453946595134	11.841177886118945	0	0
-49.13573697179433	11.934585649466563	0	0
-50.282610595073024	11.409824571142504	0	0
-49.961718569131733	-3.214248155337124	0	0
-50.461673769031449	-3.2209412931091963	0	0
-51.499999999999986	-2.5050000000000017	0	0
-49.961718569131733	3.2142481553371143	0	0
-50.461673769031449	3.2209412931091874	0	0
-51.499999999999993	2.5049999999999972	0	0
-48.644539465951347	-11.841177886118935	0	0
-49.135736971794337	-11.934585649466534	0	0
-50.282610595073045	-11.409824571142487	0	0
-49.760836135438495	-5.5103448791565688	0	0
-50.254358143635521	-5.5905697345643466	0	0
-51.152587965184381	-6.475937728551326	0	0
-45.849320646422719	-20.108319418756167	0	0
-46.316835670551896	-20.285603660056609	0	0
-47.537409511443457	-19.967967396340647	0	0
-48.04799587596807	-14.067508872866153	0	0
-48.520089275977469	-14.232214129817946	0	0
-49.250930429505068	-15.260107366203247	0	0
-41.660993419928232	-27.764479841155076	0	0
-42.09062075490948	-28.020253868446574	0	0
-43.34780829489857	-27.91939363648002	0	0
-44.875241575265349	-22.197238727976643	0	0
-45.311562048018672	-22.441419900584854	0	0
-45.852808294898594	-23.580606363519987	0	0
-36.206817989849085	-34.57703059308519	0	0
-36.585503626510899	-34.903522841976425	0	0
-37.841105858362589	-35.022503228869809	0	0
-40.33897576726612	-29.652516716682349	0	0
-40.726265935987563	-29.96875448357892	0	0
-41.061471782892148	-31.184620568843734	0	0
-29.652516716682314	-40.338975767266128	0	0
-29.96875448357892	-40.726265935987577	0	0
-31.184620568843759	-41.061471782892141	0	0
-34.577030593085205	-36.206817989849092	0	0
-34.903522841976432	-36.585503626510892	0	0
-35.022503228869816	-37.841105858362596	0	0
-22.197238727976654	-44.875241575265335	0	0
-22.441419900584862	-45.311562048018672	0	0
-23.580606363519987	-45.85280829489858	0	0
-27.764479841155094	-41.660993419928232	0	0
-28.020253868446591	-42.090620754909473	0	0
-27.919393636480027	-43.347808294898584	0	0
-14.067508872866181	-48.047995875968041	0	0
-14.232214129817976	-48.520089275977426	0	0
-15.260107366203268	-49.250930429505061	0	0
-20.108319418756203	-45.84932064642269	0	0
-20.285603660056619	-46.316835670551889	0	0
-19.967967396340654	-47.537409511443457	0	0
-5.5103448791566061	-49.760836135438531	0	0
-5.5905697345643866	-50.254358143635528	0	0
-6.4759377285513775	-51.15258796518436	0	0
-11.841177886118977	-48.64453946595134	0	0
-11.934585649466586	-49.135736971794344	0	0
-11.409824571142536	-50.282610595073024	0	0
3.2142481553371223	-49.961718569131726	0	0
3.2209412931091936	-50.461673769031442	0	0
2.504999999999999	-51.499999999999993	0	0
-3.2142481553371178	-49.961718569131733	0	0
-3.2209412931091874	-50.461673769031449	0	0
-2.5050000000000017	-51.499999999999993	0	0
11.841177886118928	-48.644539465951347	0	0
11.934585649466534	-49.135736971794337	0	0
11.409824571142487	-50.282610595073045	0	0
5.5103448791565652	-49.760836135438495	0	0
5.5905697345643448	-50.254358143635521	0	0
6.4759377285513224	-51.152587965184381	0	0
20.108319418756146	-45.849320646422719	0	0
20.285603660056577	-46.316835670551896	0	0
19.967967396340619	-47.537409511443471	0	0
14.067508872866131	-48.047995875968077	0	0
14.232214129817921	-48.520089275977469	0	0
15.260107366203226	-49.250930429505075	0	0
27.764479841155062	-41.660993419928239	0	0
28.020253868446542	-42.090620754909487	0	0
27.919393636479999	-43.347808294898591	0	0
22.197238727976629	-44.875241575265356	0	0
22.441419900584833	-45.311562048018665	0	0
23.580606363519955	-45.852808294898615	0	0
34.57703059308519	-36.206817989849085	0	0
34.903522841976425	-36.585503626510899	0	0
35.022503228869809	-37.841105858362589	0	0
29.652516716682349	-40.33897576726612	0	0
29.96875448357892	-40.726265935987563	0	0
31.184620568843734	-41.061471782892148	0	0
40.338975767266128	-29.652516716682321	0	0
40.726265935987577	-29.96875448357892	0	0
41.061471782892141	-31.184620568843766	0	0
36.206817989849085	-34.577030593085205	0	0
36.585503626510892	-34.903522841976439	0	0
37.841105858362596	-35.022503228869823	0	0
44.875241575265335	-22.197238727976675	0	0
45.311562048018665	-22.441419900584869	0	0
45.852808294898573	-23.580606363519987	0	0
41.660993419928225	-27.764479841155104	0	0
42.090620754909466	-28.020253868446595	0	0
43.347808294898577	-27.919393636480031	0	0
48.047995875968041	-14.067508872866181	0	0
48.520089275977426	-14.232214129817976	0	0
49.250930429505061	-15.260107366203268	0	0
45.84932064642269	-20.108319418756203	0	0
46.316835670551889	-20.285603660056619	0	0
47.537409511443457	-19.967967396340654	0	0
49.76083613543851	-5.5103448791565723	0	0
50.254358143635514	-5.5905697345643466	0	0
51.152587965184374	-6.4759377285513278	0	0
48.64453946595134	-11.841177886118938	0	0
49.135736971794344	-11.93458564946655	0	0
50.282610595073038	-11.409824571142495	0	0
49.96171856913174	3.2142481553370725	0	0
50.461673769031457	3.2209412931091448	0	0
51.5	2.504999999999951	0	0
49.961718569131719	-3.2142481553371693	0	0
50.461673769031428	-3.2209412931092389	0	0
51.499999999999993	-2.5050000000000487	0	0
62.579000000000001	2.5050000000000008	0	1
62.06327306080663	8.3997858889232511	0	1
61.193295690695308	13.333672731514415	0	1
59.661784975192163	19.049348534108322	0	1
57.948264057130558	23.757208564245722	0	1
55.447503743426395	29.120106363519973	0	1
52.942503743426393	33.458893636480013	0	1
49.548478168207311	38.3060644965609	0	1
46.328112243677751	42.143947156586975	0	1
42.143947156586989	46.328112243677744	0	1
38.306064496560907	49.548478168207311	0	1
33.45889363648002	52.942503743426386	0	1
29.120106363519984	55.447503743426381	0	1
23.757208564245733	57.948264057130558	0	1
19.049348534108326	59.661784975192163	0	1
13.333672731514426	61.193295690695301	0	1
8.3997858889232546	62.06327306080663	0	1
2.5050000000000052	62.579000000000001	0	1
-2.5049999999999968	62.579000000000001	0	1
-8.3997858889232475	62.06327306080663	0	1
-13.333672731514415	61.193295690695308	0	1
-19.049348534108319	59.661784975192163	0	1
-23.757208564245722	57.948264057130558	0	1
-29.120106363519973	55.447503743426395	0	1
-33.458893636480006	52.942503743426393	0	1
-38.306064496560886	49.548478168207311	0	1
-42.143947156586982	46.328112243677751	0	1
-46.328112243677751	42.143947156586989	0	1
-49.548478168207303	38.306064496560914	0	1
-52.942503743426379	33.458893636480028	0	1
-55.447503743426381	29.120106363519977	0	1
-57.948264057130565	23.757208564245722	0	1
-59.661784975192163	19.049348534108329	0	1
-61.193295690695301	13.333672731514429	0	1
-62.063273060806623	8.3997858889232475	0	1
-62.578999999999994	2.5049999999999981	0	1
-62.579000000000001	-2.5049999999999932	0	1
-62.06327306080663	-8.399785888923244	0	1
-61.193295690695301	-13.333672731514422	0	1
-59.661784975192155	-19.049348534108329	0	1
-57.948264057130558	-23.757208564245722	0	1
-55.447503743426395	-29.120106363519973	0	1
-52.942503743426386	-33.458893636480028	0	1
-49.548478168207296	-38.306064496560907	0	1
-46.328112243677751	-42.143947156586975	0	1
-42.143947156586989	-46.328112243677744	0	1
-38.306064496560914	-49.548478168207303	0	1
-33.458893636480028	-52.942503743426379	0	1
-29.120106363520005	-55.447503743426367	0	1
-23.757208564245754	-57.948264057130544	0	1
-19.049348534108361	-59.661784975192148	0	1
-13.333672731514458	-61.193295690695301	0	1
-8.3997858889232511	-62.063273060806623	0	1
-2.5050000000000017	-62.578999999999994	0	1
2.5049999999999892	-62.579000000000001	0	1
8.3997858889232404	-62.06327306080663	0	1
13.333672731514392	-61.193295690695315	0	1
19.049348534108301	-59.66178497519217	0	1
23.757208564245694	-57.948264057130572	0	1
29.120106363519945	-55.447503743426402	0	1
33.458893636480028	-52.942503743426386	0	1
38.306064496560907	-49.548478168207296	0	1
42.143947156586975	-46.328112243677751	0	1
46.328112243677744	-42.143947156586989	0	1
49.548478168207296	-38.306064496560921	0	1
52.942503743426379	-33.458893636480035	0	1
55.447503743426367	-29.120106363520005	0	1
57.948264057130544	-23.757208564245754	0	1
59.661784975192163	-19.049348534108312	0	1
61.193295690695308	-13.33367273151441	0	1
62.063273060806623	-8.3997858889233097	0	1
62.578999999999994	-2.5050000000000612	0	1
9.1625306681076051	23.2604391995505	0	0
-9.1625306681076051	-23.2604391995505	0	0
[NumSegments] = 300
149	148	-1	0	0	2
150	151	-1	0	0	2
163	162	-1	0	0	2
156	157	-1	0	0	2
159	158	-1	0	0	2
152	153	-1	0	0	2
155	154	-1	0	0	2
168	169	-1	0	0	2
171	170	-1	0	0	2
164	165	-1	0	0	2
167	166	-1	0	0	2
160	161	-1	0	0	2
172	173	-1	0	0	1
173	174	-1	0	0	1
175	176	-1	0	0	1
177	176	-1	0	0	1
174	390	-1	0	0	1
390	6	-1	0	0	1
177	389	-1	0	0	1
389	7	-1	0	0	1
178	179	-1	0	0	1
179	180	-1	0	0	1
181	182	-1	0	0	1
183	182	-1	0	0	1
184	185	-1	0	0	1
185	186	-1	0	0	1
187	188	-1	0	0	1
189	188	-1	0	0	1
190	191	-1	0	0	1
191	192	-1	0	0	1
193	194	-1	0	0	1
195	194	-1	0	0	1
196	197	-1	0	0	1
197	198	-1	0	0	1
199	200	-1	0	0	1
201	200	-1	0	0	1
202	203	-1	0	0	1
203	204	-1	0	0	1
205	206	-1	0	0	1
207	206	-1	0	0	1
208	209	-1	0	0	1
209	210	-1	0	0	1
211	212	-1	0	0	1
213	212	-1	0	0	1
214	215	-1	0	0	1
215	216	-1	0	0	1
217	218	-1	0	0	1
219	218	-1	0	0	1
220	221	-1	0	0	1
221	222	-1	0	0	1
223	224	-1	0	0	1
225	224	-1	0	0	1
226	227	-1	0	0	1
227	228	-1	0	0	1
229	230	-1	0	0	1
231	230	-1	0	0	1
232	233	-1	0	0	1
233	234	-1	0	0	1
235	236	-1	0	0	1
237	236	-1	0	0	1
238	239	-1	0	0	1
239	240	-1	0	0	1
241	242	-1	0	0	1
243	242	-1	0	0	1
244	245	-1	0	0	1
245	246	-1	0	0	1
247	248	-1	0	0	1
249	248	-1	0	0	1
250	251	-1	0	0	1
251	252	-1	0	0	1
253	254	-1	0	0	1
255	254	-1	0	0	1
256	257	-1	0	0	1
257	258	-1	0	0	1
259	260	-1	0	0	1
261	260	-1	0	0	1
262	263	-1	0	0	1
263	264	-1	0	0	1
265	266	-1	0	0	1
267	266	-1	0	0	1
268	269	-1	0	0	1
269	270	-1	0	0	1
271	272	-1	0	0	1
273	272	-1	0	0	1
274	275	-1	0	0	1
275	276	-1	0	0	1
277	278	-1	0	0	1
279	278	-1	0	0	1
280	281	-1	0	0	1
281	282	-1	0	0	1
283	284	-1	0	0	1
285	284	-1	0	0	1
286	287	-1	0	0	1
287	288	-1	0	0	1
289	290	-1	0	0	1
291	290	-1	0	0	1
292	293	-1	0	0	1
293	294	-1	0	0	1
295	296	-1	0	0	1
297	296	-1	0	0	1
298	299	-1	0	0	1
299	300	-1	0	0	1
301	302	-1	0	0	1
303	302	-1	0	0	1
304	305	-1	0	0	1
305	306	-1	0	0	1
307	308	-1	0	0	1
309	308	-1	0	0	1
310	311	-1	0	0	1
311	312	-1	0	0	1
313	314	-1	0	0	1
315	314	-1	0	0	1
316	317	-1	0	0	1
317	318	-1	0	0	1
319	320	-1	0	0	1
321	320	-1	0	0	1
322	323	-1	0	0	1
323	324	-1	0	0	1
325	326	-1	0	0	1
327	326	-1	0	0	1
328	329	-1	0	0	1
329	330	-1	0	0	1
331	332	-1	0	0	1
333	332	-1	0	0	1
334	335	-1	0	0	1
335	336	-1	0	0	1
337	338	-1	0	0	1
339	338	-1	0	0	1
340	341	-1	0	0	1
341	342	-1	0	0	1
343	344	-1	0	0	1
345	344	-1	0	0	1
346	347	-1	0	0	1
347	348	-1	0	0	1
349	350	-1	0	0	1
351	350	-1	0	0	1
352	353	-1	0	0	1
353	354	-1	0	0	1
355	356	-1	0	0	1
357	356	-1	0	0	1
358	359	-1	0	0	1
359	360	-1	0	0	1
361	362	-1	0	0	1
363	362	-1	0	0	1
364	365	-1	0	0	1
365	366	-1	0	0	1
367	368	-1	0	0	1
369	368	-1	0	0	1
370	371	-1	0	0	1
371	372	-1	0	0	1
373	374	-1	0	0	1
375	374	-1	0	0	1
376	377	-1	0	0	1
377	378	-1	0	0	1
379	380	-1	0	0	1
381	380	-1	0	0	1
382	383	-1	0	0	1
383	384	-1	0	0	1
385	386	-1	0	0	1
387	386	-1	0	0	1
180	392	-1	0	0	1
392	8	-1	0	0	1
183	391	-1	0	0	1
391	11	-1	0	0	1
189	393	-1	0	0	1
393	15	-1	0	0	1
186	394	-1	0	0	1
394	12	-1	0	0	1
195	395	-1	0	0	1
395	19	-1	0	0	1
192	396	-1	0	0	1
396	16	-1	0	0	1
198	398	-1	0	0	1
398	20	-1	0	0	1
201	397	-1	0	0	1
397	23	-1	0	0	1
207	399	-1	0	0	1
399	27	-1	0	0	1
204	400	-1	0	0	1
400	24	-1	0	0	1
213	401	-1	0	0	1
401	31	-1	0	0	1
210	402	-1	0	0	1
402	28	-1	0	0	1
219	403	-1	0	0	1
403	35	-1	0	0	1
216	404	-1	0	0	1
404	32	-1	0	0	1
225	405	-1	0	0	1
405	39	-1	0	0	1
222	406	-1	0	0	1
406	36	-1	0	0	1
231	407	-1	0	0	1
407	43	-1	0	0	1
228	408	-1	0	0	1
408	40	-1	0	0	1
237	409	-1	0	0	1
409	47	-1	0	0	1
234	410	-1	0	0	1
410	44	-1	0	0	1
243	411	-1	0	0	1
411	51	-1	0	0	1
240	412	-1	0	0	1
412	48	-1	0	0	1
249	413	-1	0	0	1
413	55	-1	0	0	1
246	414	-1	0	0	1
414	52	-1	0	0	1
255	415	-1	0	0	1
415	59	-1	0	0	1
252	416	-1	0	0	1
416	56	-1	0	0	1
261	417	-1	0	0	1
417	63	-1	0	0	1
258	418	-1	0	0	1
418	60	-1	0	0	1
267	419	-1	0	0	1
419	67	-1	0	0	1
264	420	-1	0	0	1
420	64	-1	0	0	1
273	421	-1	0	0	1
421	71	-1	0	0	1
270	422	-1	0	0	1
422	68	-1	0	0	1
279	423	-1	0	0	1
423	75	-1	0	0	1
276	424	-1	0	0	1
424	72	-1	0	0	1
285	425	-1	0	0	1
425	79	-1	0	0	1
282	426	-1	0	0	1
426	76	-1	0	0	1
291	427	-1	0	0	1
427	83	-1	0	0	1
288	428	-1	0	0	1
428	80	-1	0	0	1
297	429	-1	0	0	1
429	87	-1	0	0	1
294	430	-1	0	0	1
430	84	-1	0	0	1
303	431	-1	0	0	1
431	91	-1	0	0	1
300	432	-1	0	0	1
432	88	-1	0	0	1
309	433	-1	0	0	1
433	95	-1	0	0	1
306	434	-1	0	0	1
434	92	-1	0	0	1
99	435	-1	0	0	1
435	315	-1	0	0	1
96	436	-1	0	0	1
436	312	-1	0	0	1
103	437	-1	0	0	1
437	321	-1	0	0	1
100	438	-1	0	0	1
438	318	-1	0	0	1
107	439	-1	0	0	1
439	327	-1	0	0	1
104	440	-1	0	0	1
440	324	-1	0	0	1
111	441	-1	0	0	1
441	333	-1	0	0	1
108	442	-1	0	0	1
442	330	-1	0	0	1
115	443	-1	0	0	1
443	339	-1	0	0	1
112	444	-1	0	0	1
444	336	-1	0	0	1
119	445	-1	0	0	1
445	345	-1	0	0	1
116	446	-1	0	0	1
446	342	-1	0	0	1
123	447	-1	0	0	1
447	351	-1	0	0	1
120	448	-1	0	0	1
448	348	-1	0	0	1
127	449	-1	0	0	1
449	357	-1	0	0	1
124	450	-1	0	0	1
450	354	-1	0	0	1
131	451	-1	0	0	1
451	363	-1	0	0	1
128	452	-1	0	0	1
452	360	-1	0	0	1
135	453	-1	0	0	1
453	369	-1	0	0	1
132	454	-1	0	0	1
454	366	-1	0	0	1
139	455	-1	0	0	1
455	375	-1	0	0	1
136	456	-1	0	0	1
456	372	-1	0	0	1
143	457	-1	0	0	1
457	381	-1	0	0	1
140	458	-1	0	0	1
458	378	-1	0	0	1
147	459	-1	0	0	1
459	387	-1	0	0	1
144	388	-1	0	0	1
388	384	-1	0	0	1
[NumArcSegments] = 240
0	149	27.499999999999996	1	0	0	2	1
1	161	27.5	1	0	0	2	1
161	166	4.9999999999999787	1	0	0	2	1
166	165	54.999999999999993	1	0	0	2	1
165	170	5.0000000000000382	1	0	0	2	1
170	169	55	1	0	0	2	1
169	150	4.9999999999999973	1	0	0	2	1
77	82	4.622550431914819	1	0	0	1	1
81	86	4.6225504319148278	1	0	0	1	1
85	90	4.6225504319148758	1	0	0	1	1
89	94	4.6225504319148882	1	0	0	1	1
93	98	4.6225504319149149	1	0	0	1	1
97	102	4.6225504319149371	1	0	0	1	1
101	106	4.6225504319149628	1	0	0	1	1
105	110	4.6225504319150419	1	0	0	1	1
109	114	4.622550431915009	1	0	0	1	1
113	118	4.6225504319150286	1	0	0	1	1
117	122	4.6225504319150419	1	0	0	1	1
121	126	4.6225504319151094	1	0	0	1	1
125	130	4.6225504319150739	1	0	0	1	1
129	134	4.6225504319150801	1	0	0	1	1
133	138	4.622550431915089	1	0	0	1	1
137	142	4.6225504319151423	1	0	0	1	1
141	146	4.622550431915041	1	0	0	1	1
145	5	4.62255043191516	1	0	0	1	1
2	3	180	1	1	0	1	1
3	2	180	1	1	0	1	1
4	10	4.6225504319376132	1	0	0	1	1
9	14	4.6225504319370572	1	0	0	1	1
13	18	4.6225504319361486	1	0	0	1	1
17	22	4.6225504319349087	1	0	0	1	1
21	26	4.6225504319333268	1	0	0	1	1
25	30	4.6225504319314012	1	0	0	1	1
29	34	4.6225504319291471	1	0	0	1	1