[Format]      =  4.0
[Frequency]   =  0
[Precision]   =  1e-008
[MinAngle]    =  30
[DoSmartMesh] =  1
[Depth]       =  66
[LengthUnits] =  millimeters
[ProblemType] =  planar
[Coordinates] =  cartesian
[ACSolver]    =  0
[PrevType]    =  0
[PrevSoln]    =  ""
[Comment]     =  "Add comments here."
[PointProps]   = 0
[BdryProps]   = 2
  <BeginBdry>
    <BdryName> = "campo_tangente"
    <BdryType> = 0
    <A_0> = 0
    <A_1> = 0
    <A_2> = 0
    <Phi> = 0
    <c0> = 0
    <c0i> = 0
    <c1> = 0
    <c1i> = 0
    <Mu_ssd> = 0
    <Sigma_ssd> = 0
    <innerangle> = 0
    <outerangle> = 0
  <EndBdry>
  <BeginBdry>
    <BdryName> = "femm_gap_dispari"
    <BdryType> = 7
    <A_0> = 0
    <A_1> = 0
    <A_2> = 0
    <Phi> = 0
    <c0> = 0
    <c0i> = 0
    <c1> = 0
    <c1i> = 0
    <Mu_ssd> = 0
    <Sigma_ssd> = 0
    <innerangle> = -30
    <outerangle> = 30
  <EndBdry>
[BlockProps]  = 5
  <BeginBlock>
    <BlockName> = "Air"
    <Mu_x> = 1
    <Mu_y> = 1
    <H_c> = 0
    <H_cAngle> = 0
    <J_re> = 0
    <J_im> = 0
    <Sigma> = 0
    <d_lam> = 0
    <Phi_h> = 0
    <Phi_hx> = 0
    <Phi_hy> = 0
    <LamType> = 0
    <LamFill> = 1
    <NStrands> = 0
    <WireD> = 0
    <BHPoints> = 0
  <EndBlock>
  <BeginBlock>
    <BlockName> = "Pure Iron"
    <Mu_x> = 14872
    <Mu_y> = 14872
    <H_c> = 0
    <H_cAngle> = 0
    <J_re> = 0
    <J_im> = 0
    <Sigma> = 10.44
    <d_lam> = 0
    <Phi_h> = 0
    <Phi_hx> = 0
    <Phi_hy> = 0
    <LamType> = 0
    <LamFill> = 1
    <NStrands> = 0
    <WireD> = 0
    <BHPoints> = 0
  <EndBlock>
  <BeginBlock>
    <BlockName> = "N50"
    <Mu_x> = 1.05
    <Mu_y> = 1.05
    <H_c> = 987837
    <H_cAngle> = 0
    <J_re> = 0
    <J_im> = 0
    <Sigma> = 0.66700000000000004
    <d_lam> = 0
    <Phi_h> = 0
    <Phi_hx> = 0
    <Phi_hy> = 0
    <LamType> = 0
    <LamFill> = 1
    <NStrands> = 0
    <WireD> = 0
    <BHPoints> = 8
      0	0
      0.0717	11297
      0.14349999999999999	30636
      0.2152	67096
      0.28689999999999999	118309
      0.35859999999999997	172428
      0.4304	226773
      1.4346000000000001	987837
  <EndBlock>
  <BeginBlock>
    <BlockName> = "18 AWG"
    <Mu_x> = 1
    <Mu_y> = 1
    <H_c> = 0
    <H_cAngle> = 0
    <J_re> = 0
    <J_im> = 0
    <Sigma> = 58
    <d_lam> = 0
    <Phi_h> = 0
    <Phi_hx> = 0
    <Phi_hy> = 0
    <LamType> = 3
    <LamFill> = 1
    <NStrands> = 1
    <WireD> = 1.0239652968433499
    <BHPoints> = 0
  <EndBlock>
  <BeginBlock>
    <BlockName> = "N30"
    <Mu_x> = 1.05
    <Mu_y> = 1.05
    <H_c> = 836420
    <H_cAngle> = 0
    <J_re> = 0
    <J_im> = 0
    <Sigma> = 0.66700000000000004
    <d_lam> = 0
    <Phi_h> = 0
    <Phi_hx> = 0
    <Phi_hy> = 0
    <LamType> = 0
    <LamFill> = 1
    <NStrands> = 0
    <WireD> = 0
    <BHPoints> = 0
  <EndBlock>
[CircuitProps]  = 3
  <BeginCircuit>
    <CircuitName> = "phase_1"
    <TotalAmps_re> = 0
    <TotalAmps_im> = 0
    <CircuitType> = 1
  <EndCircuit>
  <BeginCircuit>
    <CircuitName> = "phase_2"
    <TotalAmps_re> = 0
    <TotalAmps_im> = 0
    <CircuitType> = 1
  <EndCircuit>
  <BeginCircuit>
    <CircuitName> = "phase_3"
    <TotalAmps_re> = 0
    <TotalAmps_im> = 0
    <CircuitType> = 1
  <EndCircuit>
[NumPoints] = 92
34.822809437693529	28.502139268240256	0	0
94.700000000000003	-7.1054273576010019e-015	0	0
74.617764689181229	3.5041679327669701	0	0
74.617764689181286	-3.5041679327669719	0	0
73.657986680000008	2.5049999999999972	0	0
73.657986680000008	-2.5049999999999972	0	0
72.103967668678337	15.257518578892606	0	0
72.875660802582388	16.408170607901813	0	0
74.092645554110163	9.5063071118104787	0	0
72.973945038789594	10.323631736301444	0	0
68.359106086111936	27.546445176442482	0	0
68.919266839360787	28.813619322050521	0	0
71.316258876565144	22.22793782521908	0	0
70.072627004173583	22.838585146305089	0	0
66.372963760823907	34.274183895687628	0	0
65.04218765649577	34.659599703520001	0	0
65.042187656495798	-34.659599703520023	0	0
66.372963760823907	-34.274183895687685	0	0
70.072627004173526	-22.838585146305086	0	0
71.316258876565101	-22.227937825219051	0	0
68.919266839360759	-28.813619322050506	0	0
68.359106086111936	-27.546445176442496	0	0
72.97394503878958	-10.323631736301522	0	0
74.092645554110149	-9.5063071118105515	0	0
72.875660802582374	-16.408170607901894	0	0
72.103967668678294	-15.257518578892679	0	0
19.30315356995705	45.037631623507259	0	0
17.727385931593108	41.361090266486208	0	0
44.049032494276403	9.2023223328806463	0	0
47.964502049323492	10.020306540247887	0	0
49.961718569131733	3.2142481553371187	0	0
50.461673769031421	3.2209412931091901	0	0
51.499999999999986	2.5050000000000026	0	0
49.961718569131712	-3.2142481553371205	0	0
50.461673769031457	-3.220941293109191	0	0
51.5	-2.5050000000000008	0	0
48.644539465951347	11.841177886118935	0	0
49.135736971794337	11.934585649466552	0	0
50.282610595073045	11.409824571142495	0	0
49.760836135438524	5.5103448791565697	0	0
50.254358143635521	5.5905697345643439	0	0
51.152587965184367	6.4759377285513331	0	0
45.849320646422711	20.108319418756167	0	0
46.316835670551917	20.285603660056594	0	0
47.537409511443457	19.967967396340644	0	0
48.047995875968041	14.067508872866149	0	0
48.520089275977455	14.232214129817935	0	0
49.250930429505082	15.260107366203243	0	0
44.875241575265342	22.197238727976639	0	0
45.311562048018672	22.441419900584854	0	0
45.852808294898587	23.580606363519966	0	0
44.875241575265335	-22.197238727976679	0	0
45.311562048018629	-22.44141990058489	0	0
45.852808294898558	-23.580606363520005	0	0
48.047995875968041	-14.067508872866144	0	0
48.520089275977455	-14.232214129817937	0	0
49.250930429505082	-15.260107366203233	0	0
45.849320646422704	-20.10831941875616	0	0
46.316835670551903	-20.285603660056598	0	0
47.537409511443464	-19.96796739634064	0	0
49.760836135438517	-5.5103448791566247	0	0
50.254358143635514	-5.590569734564399	0	0
51.152587965184367	-6.4759377285513793	0	0
48.644539465951325	-11.84117788611899	0	0
49.135736971794337	-11.934585649466593	0	0
50.282610595073038	-11.40982457114254	0	0
62.063273060806623	-8.3997858889232511	0	1
62.578999999999994	-2.5050000000000008	0	1
62.578999999999994	2.504999999999999	0	1
62.06327306080663	8.3997858889232511	0	1
61.193295690695301	13.333672731514415	0	1
59.66178497519217	19.049348534108315	0	1
57.948264057130558	23.757208564245715	0	1
55.447503743426381	29.120106363519977	0	1
55.447503743426388	-29.12010636351997	0	1
57.948264057130558	-23.757208564245715	0	1
59.661784975192141	-19.049348534108375	0	1
61.193295690695287	-13.333672731514472	0	1
19.34600524316296	15.834521815688971	0	0
15.906367970066972	42.094981387344852	0	0
44.408507238307237	7.2721719496513559	0	0
8.8368710944815838	23.38610077074706	0	0
24.671392910170532	4.0400955275840493	0	0
43.357568864089487	25.03249759374695	0	0
43.357568864089473	-25.032497593746989	0	0
82.012600000000006	47.350000000000001	0	0
82.012602869193188	-47.349995030411655	0	0
0	0	0	0
100	100	0	0
-100	100	0	0
-100.00000000000001	-99.999999999999986	0	0
99.999999999999986	-100.00000000000001	0	0
[NumSegments] = 58
27	26	-1	0	0	2
28	29	-1	0	0	2
30	31	-1	0	0	1
31	32	-1	0	0	1
33	34	-1	0	0	1
35	34	-1	0	0	1
32	68	-1	0	0	1
68	4	-1	0	0	1
35	67	-1	0	0	1
67	5	-1	0	0	1
36	37	-1	0	0	1
37	38	-1	0	0	1
39	40	-1	0	0	1
41	40	-1	0	0	1
42	43	-1	0	0	1
43	44	-1	0	0	1
45	46	-1	0	0	1
47	46	-1	0	0	1
48	49	-1	0	0	1
50	49	-1	0	0	1
51	52	-1	0	0	1
52	53	-1	0	0	1
54	55	-1	0	0	1
55	56	-1	0	0	1
57	58	-1	0	0	1
59	58	-1	0	0	1
60	61	-1	0	0	1
61	62	-1	0	0	1
63	64	-1	0	0	1
65	64	-1	0	0	1
38	70	-1	0	0	1
70	6	-1	0	0	1
41	69	-1	0	0	1
69	9	-1	0	0	1
47	71	-1	0	0	1
71	13	-1	0	0	1
44	72	-1	0	0	1
72	10	-1	0	0	1
50	73	-1	0	0	1
73	15	-1	0	0	1
16	74	-1	0	0	1
74	53	-1	0	0	1
21	75	-1	0	0	1
75	59	-1	0	0	1
18	76	-1	0	0	1
76	56	-1	0	0	1
25	77	-1	0	0	1
77	65	-1	0	0	1
22	66	-1	0	0	1
66	62	-1	0	0	1
82	80	-1	0	0	2
81	79	-1	0	0	2
83	85	-1	2	0	1
84	86	-1	2	0	1
89	88	-1	0	0	0
90	91	-1	0	0	0
89	90	-1	0	0	0
88	91	-1	0	0	0
[NumArcSegments] = 46
0	27	27.499999999999996	1	0	0	2	1
80	28	2.4999999999999996	1	0	0	2	1
17	20	4.6225504319151423	1	0	0	1	1
19	24	4.622550431915041	1	0	0	1	1
23	3	4.62255043191516	1	0	0	1	1
1	85	30.000001735931033	1	0	0	1	1
86	1	29.999998264068971	1	0	0	1	1
2	8	4.6225504319376132	1	0	0	1	1
7	12	4.6225504319370572	1	0	0	1	1
11	14	4.6225504319361486	1	0	0	1	1
4	2	90	1	0	0	1	1
3	5	90	1	0	0	1	1
6	7	90	1	0	0	1	1
8	9	90	1	0	0	1	1
10	11	90	1	0	0	1	1
12	13	90	1	0	0	1	1
14	15	90	1	0	0	1	1
16	17	90	1	0	0	1	1
18	19	90	1	0	0	1	1
20	21	90	1	0	0	1	1
22	23	90	1	0	0	1	1
24	25	90	1	0	0	1	1
27	79	2.4999999999999996	1	0	0	2	1
28	0	27.5	1	0	0	2	1
29	26	55	1	0	0	2	1
39	36	7.3620128077187799	1	0	0	1	1
45	42	7.3620128077187692	1	0	0	1	1
48	83	3.6810000000000023	1	0	0	1	1
84	51	3.6809999999999943	1	0	0	1	1
57	54	7.3620128077187692	1	0	0	1	1
63	60	7.3620128077187736	1	0	0	1	1
33	30	7.3620128077187728	1	0	0	1	1
32	41	4.4305670852404067	1	0	0	1	1
38	47	4.4305670852404093	1	0	0	1	1
44	50	4.4305670852403853	1	0	0	1	1
53	59	4.430567085240436	1	0	0	1	1
56	65	4.4305670852403418	1	0	0	1	1
62	35	4.4305670852404546	1	0	0	1	1
66	67	4.4305700000000003	1	0	0	1	1
68	69	4.4305700000000003	1	0	0	1	1
70	71	4.4305700000000003	1	0	0	1	1
72	73	4.4305700000000003	1	0	0	1	1
74	75	4.4305700000000003	1	0	0	1	1
76	77	4.4305700000000003	1	0	0	1	1
78	81	29.999999999999996	1	0	0	2	1
82	78	29.999999999999996	1	0	0	2	1
[NumHoles] = 0
[NumBlockLabels] = 16
36.370489857146325	29.768901013495299	5	0.29999999999999999	0	399.30000000000001	2	1	0
79.623149122134635	36.744035214906837	2	1	0	0	0	1	0
58.775487187412985	-5.1421888221118328	4	-1	3	0	1	11	0
58.775487187412992	5.1421888221118301	4	-1	3	0	1	11	0
56.989623751055035	15.270323661048726	4	-1	2	0	1	-11	0
53.472159435162347	24.934477442701251	4	-1	2	0	1	-11	0
53.472159435162354	-24.934477442701258	4	-1	1	0	1	-11	0
56.989623751055028	-15.270323661048783	4	-1	1	0	1	-11	0
68.737434168330438	-6.0137462495884142	4	-1	3	0	1	11	0
68.737434168330438	6.0137462495884133	4	-1	2	0	1	-11	0
66.648882013945709	17.85851411207393	4	-1	2	0	1	-11	0
62.535237305528845	29.160660060108249	4	-1	1	0	1	11	0
62.53523730552886	-29.160660060108253	4	-1	1	0	1	-11	0
66.648882013945695	-17.858514112073994	4	-1	3	0	1	11	0
34.5	5.0999999999999996	2	-1	0	0	0	1	0
49.399999999999999	4.2999999999999998	1	-1	0	0	0	1	0
